138395266
  -OEChem-04162310552D

 50 58  0     1  0  0  0  0  0999 V2000
    5.2711    1.3573    0.0000 C   0  0  0  0  0  0  0  0  0  0  0  0
    5.7284    0.4509    0.0000 C   0  0  3  0  0  0  0  0  0  0  0  0
    5.2284   -1.7397    0.0000 C   0  0  3  0  0  0  0  0  0  0  0  0
    6.3518   -0.3309    0.0000 C   0  0  3  0  0  0  0  0  0  0  0  0
    6.1293   -1.3058    0.0000 C   0  0  3  0  0  0  0  0  0  0  0  0
    4.7284    0.4509    0.0000 C   0  0  3  0  0  0  0  0  0  0  0  0
    4.3274   -1.3058    0.0000 C   0  0  3  0  0  0  0  0  0  0  0  0
    6.9037    0.4135    0.0000 C   0  0  0  0  0  0  0  0  0  0  0  0
    4.1049   -0.3309    0.0000 C   0  0  0  0  0  0  0  0  0  0  0  0
    7.3504   -0.1756    0.0000 C   0  0  3  0  0  0  0  0  0  0  0  0
    6.8474   -0.5952    0.0000 C   0  0  3  0  0  0  0  0  0  0  0  0
    2.7485    0.7524    0.0000 C   0  0  0  0  0  0  0  0  0  0  0  0
    3.7782    0.7017    0.0000 C   0  0  3  0  0  0  0  0  0  0  0  0
    2.9791   -0.7054    0.0000 C   0  0  3  0  0  0  0  0  0  0  0  0
    6.2690    1.1996    0.0000 C   0  0  0  0  0  0  0  0  0  0  0  0
    3.8456    1.7397    0.0000 C   0  0  0  0  0  0  0  0  0  0  0  0
    2.8264    1.6333    0.0000 C   0  0  0  0  0  0  0  0  0  0  0  0
    4.2238    1.1447    0.0000 C   0  0  0  0  0  0  0  0  0  0  0  0
    8.0873   -0.8109    0.0000 C   0  0  0  0  0  0  0  0  0  0  0  0
    7.3402   -1.4341    0.0000 C   0  0  0  0  0  0  0  0  0  0  0  0
    2.9185    0.1764    0.0000 C   0  0  0  0  0  0  0  0  0  0  0  0
    2.0000    0.4050    0.0000 C   0  0  0  0  0  0  0  0  0  0  0  0
    6.2503    0.7856    0.0000 H   0  0  0  0  0  0  0  0  0  0  0  0
    5.2284   -2.3597    0.0000 H   0  0  0  0  0  0  0  0  0  0  0  0
    6.5770    0.2468    0.0000 H   0  0  0  0  0  0  0  0  0  0  0  0
    6.4868   -1.8124    0.0000 H   0  0  0  0  0  0  0  0  0  0  0  0
    4.8081    1.0658    0.0000 H   0  0  0  0  0  0  0  0  0  0  0  0
    4.0667   -1.8684    0.0000 H   0  0  0  0  0  0  0  0  0  0  0  0
    7.3919    0.7956    0.0000 H   0  0  0  0  0  0  0  0  0  0  0  0
    3.4865   -0.3755    0.0000 H   0  0  0  0  0  0  0  0  0  0  0  0
    7.8024    0.2488    0.0000 H   0  0  0  0  0  0  0  0  0  0  0  0
    6.7672   -1.2100    0.0000 H   0  0  0  0  0  0  0  0  0  0  0  0
    2.1641    0.9595    0.0000 H   0  0  0  0  0  0  0  0  0  0  0  0
    3.8679    0.0882    0.0000 H   0  0  0  0  0  0  0  0  0  0  0  0
    2.6121   -1.2050    0.0000 H   0  0  0  0  0  0  0  0  0  0  0  0
    6.8400    1.4414    0.0000 H   0  0  0  0  0  0  0  0  0  0  0  0
    6.1936    1.8150    0.0000 H   0  0  0  0  0  0  0  0  0  0  0  0
    4.1176    2.2969    0.0000 H   0  0  0  0  0  0  0  0  0  0  0  0
    3.3506    2.1130    0.0000 H   0  0  0  0  0  0  0  0  0  0  0  0
    2.6307    2.2216    0.0000 H   0  0  0  0  0  0  0  0  0  0  0  0
    4.8353    1.0424    0.0000 H   0  0  0  0  0  0  0  0  0  0  0  0
    4.3778    1.7453    0.0000 H   0  0  0  0  0  0  0  0  0  0  0  0
    8.5099   -1.2646    0.0000 H   0  0  0  0  0  0  0  0  0  0  0  0
    8.5172   -0.3641    0.0000 H   0  0  0  0  0  0  0  0  0  0  0  0
    6.8236   -1.7769    0.0000 H   0  0  0  0  0  0  0  0  0  0  0  0
    7.7107   -1.9312    0.0000 H   0  0  0  0  0  0  0  0  0  0  0  0
    2.3141    0.0381    0.0000 H   0  0  0  0  0  0  0  0  0  0  0  0
    3.1523   -0.3978    0.0000 H   0  0  0  0  0  0  0  0  0  0  0  0
    1.5169    0.7936    0.0000 H   0  0  0  0  0  0  0  0  0  0  0  0
    1.5716   -0.0432    0.0000 H   0  0  0  0  0  0  0  0  0  0  0  0
  1  2  1  0  0  0  0
  1  3  1  0  0  0  0
  1 15  1  0  0  0  0
  1 16  1  0  0  0  0
  2  4  1  0  0  0  0
  2  6  1  0  0  0  0
  2 23  1  0  0  0  0
  3  5  1  0  0  0  0
  3  7  1  0  0  0  0
  3 24  1  0  0  0  0
  4  5  1  0  0  0  0
  4 10  1  0  0  0  0
  4 25  1  0  0  0  0
  5 11  1  0  0  0  0
  5 26  1  0  0  0  0
  6  9  1  0  0  0  0
  6 13  1  0  0  0  0
  6 27  1  0  0  0  0
  7  9  1  0  0  0  0
  7 14  1  0  0  0  0
  7 28  1  0  0  0  0
  8 10  1  0  0  0  0
  8 11  1  0  0  0  0
  8 15  1  0  0  0  0
  8 29  1  0  0  0  0
  9 18  1  0  0  0  0
  9 30  1  0  0  0  0
 10 19  1  0  0  0  0
 10 31  1  0  0  0  0
 11 20  1  0  0  0  0
 11 32  1  0  0  0  0
 12 13  1  0  0  0  0
 12 14  1  0  0  0  0
 12 16  1  0  0  0  0
 12 33  1  0  0  0  0
 13 21  1  0  0  0  0
 13 34  1  0  0  0  0
 14 22  1  0  0  0  0
 14 35  1  0  0  0  0
 15 36  1  0  0  0  0
 15 37  1  0  0  0  0
 16 38  1  0  0  0  0
 16 39  1  0  0  0  0
 17 18  1  0  0  0  0
 17 21  1  0  0  0  0
 17 22  1  0  0  0  0
 17 40  1  0  0  0  0
 18 41  1  0  0  0  0
 18 42  1  0  0  0  0
 19 20  1  0  0  0  0
 19 43  1  0  0  0  0
 19 44  1  0  0  0  0
 20 45  1  0  0  0  0
 20 46  1  0  0  0  0
 21 47  1  0  0  0  0
 21 48  1  0  0  0  0
 22 49  1  0  0  0  0
 22 50  1  0  0  0  0
M  END
> <PUBCHEM_COMPOUND_CID>
138395266

> <PUBCHEM_COMPOUND_CANONICALIZED>
1

> <PUBCHEM_CACTVS_COMPLEXITY>
590

> <PUBCHEM_CACTVS_HBOND_ACCEPTOR>
0

> <PUBCHEM_CACTVS_HBOND_DONOR>
0

> <PUBCHEM_CACTVS_ROTATABLE_BOND>
0

> <PUBCHEM_CACTVS_SUBSKEYS>
AAADceB4AAAAAAAAAAAAAAAAAAAAAYMGAAAwYMGDBgAAAADAAAAAGAAAAAAADwCAAAAAAAAAAAAAAAAAAAAAAAAAAAAAAAAAAAAAAAIAAAAAAAAAAAAAAAEAgMAPgAAAAAAAAACAAAQAACAAAQAACAAAAA==

> <PUBCHEM_IUPAC_OPENEYE_NAME>
nonacyclo[10.8.1.12,18.03,16.05,14.05,21.07,11.08,13.015,20]docosane

> <PUBCHEM_IUPAC_CAS_NAME>
nonacyclo[10.8.1.12,18.03,16.05,14.05,21.07,11.08,13.015,20]docosane

> <PUBCHEM_IUPAC_NAME_MARKUP>
nonacyclo[10.8.1.1<SUP>2,18</SUP>.0<SUP>3,16</SUP>.0<SUP>5,14</SUP>.0<SUP>5,21</SUP>.0<SUP>7,11</SUP>.0<SUP>8,13</SUP>.0<SUP>15,20</SUP>]docosane

> <PUBCHEM_IUPAC_NAME>
nonacyclo[10.8.1.12,18.03,16.05,14.05,21.07,11.08,13.015,20]docosane

> <PUBCHEM_IUPAC_SYSTEMATIC_NAME>
nonacyclo[10.8.1.12,18.03,16.05,14.05,21.07,11.08,13.015,20]docosane

> <PUBCHEM_IUPAC_TRADITIONAL_NAME>
nonacyclo[10.8.1.12,18.03,16.05,14.05,21.07,11.08,13.015,20]docosane

> <PUBCHEM_IUPAC_INCHI>
InChI=1S/C22H28/c1-2-10-14-6-22-7-15-11-3-8-4-12(15)17-13(5-8)16(11)20(22)18(9(1)14)19(10)21(17)22/h8-21H,1-7H2

> <PUBCHEM_IUPAC_INCHIKEY>
RUWKRARAUZDZOV-UHFFFAOYSA-N

> <PUBCHEM_XLOGP3_AA>
5.7

> <PUBCHEM_EXACT_MASS>
292.219100893

> <PUBCHEM_MOLECULAR_FORMULA>
C22H28

> <PUBCHEM_MOLECULAR_WEIGHT>
292.5

> <PUBCHEM_OPENEYE_CAN_SMILES>
C1CC2C3C1C4C2C5C6C7CC8CC9C7CC5(C3)C4C9C6C8

> <PUBCHEM_OPENEYE_ISO_SMILES>
C1CC2C3C1C4C2C5C6C7CC8CC9C7CC5(C3)C4C9C6C8

> <PUBCHEM_CACTVS_TPSA>
0

> <PUBCHEM_MONOISOTOPIC_WEIGHT>
292.219100893

> <PUBCHEM_TOTAL_CHARGE>
0

> <PUBCHEM_HEAVY_ATOM_COUNT>
22

> <PUBCHEM_ATOM_DEF_STEREO_COUNT>
0

> <PUBCHEM_ATOM_UDEF_STEREO_COUNT>
10

> <PUBCHEM_BOND_DEF_STEREO_COUNT>
0

> <PUBCHEM_BOND_UDEF_STEREO_COUNT>
0

> <PUBCHEM_ISOTOPIC_ATOM_COUNT>
0

> <PUBCHEM_COMPONENT_COUNT>
1

> <PUBCHEM_CACTVS_TAUTO_COUNT>
-1

> <PUBCHEM_COORDINATE_TYPE>
1
5
255

> <PUBCHEM_BONDANNOTATIONS>
2  1  3
3  1  3
10  19  3
11  20  3
13  21  3
14  22  3
4  10  3
5  11  3
6  9  3
7  9  3

$$$$
